Version 4.1
SHEET 1 1556 680
WIRE 736 -336 624 -336
WIRE 864 -336 736 -336
WIRE 912 -336 864 -336
WIRE 1040 -336 992 -336
WIRE 1184 -336 1120 -336
WIRE 864 -272 864 -336
WIRE 1184 -272 1184 -336
WIRE 624 -176 624 -336
WIRE 736 -176 736 -336
WIRE 864 -144 864 -208
WIRE 736 -32 736 -96
WIRE 1200 -32 736 -32
WIRE 1296 -32 1200 -32
WIRE 736 16 736 -32
WIRE 1200 32 1200 -32
WIRE 336 64 256 64
WIRE 512 64 336 64
WIRE 624 64 624 -96
WIRE 624 64 576 64
WIRE 672 64 624 64
WIRE 976 112 736 112
WIRE 1136 112 1040 112
WIRE 624 160 624 64
WIRE 736 160 736 112
WIRE 1136 160 1136 112
WIRE 336 176 336 64
WIRE 256 272 256 64
WIRE 336 320 336 240
WIRE 416 320 336 320
WIRE 624 320 624 240
WIRE 624 320 416 320
WIRE 672 320 624 320
WIRE 736 320 736 240
WIRE 736 320 672 320
WIRE 1136 320 1136 240
WIRE 1136 320 736 320
WIRE 672 384 672 320
WIRE 336 416 336 320
WIRE 416 416 416 320
WIRE 256 528 256 352
WIRE 336 528 336 480
WIRE 336 528 256 528
WIRE 416 528 416 480
WIRE 416 528 336 528
WIRE 1200 528 1200 96
WIRE 1200 528 416 528
FLAG 864 -144 0
FLAG 672 384 0
FLAG 1184 -272 0
FLAG 1296 -32 OUT
IOPIN 1296 -32 Out
SYMBOL cap 320 176 R0
SYMATTR InstName C1
SYMATTR Value 680p
SYMBOL cap 320 416 R0
SYMATTR InstName C2
SYMATTR Value 220p
SYMBOL ind 240 256 R0
SYMATTR InstName L1
SYMATTR Value 530”
SYMATTR SpiceLine Rser=1m
SYMBOL cap 400 416 R0
SYMATTR InstName C3
SYMATTR Value 30p
SYMBOL cap 576 48 R90
WINDOW 0 0 32 VBottom 2
WINDOW 3 32 32 VTop 2
SYMATTR InstName C4
SYMATTR Value .01”
SYMBOL res 608 -192 R0
SYMATTR InstName R1
SYMATTR Value 10k
SYMBOL res 608 144 R0
SYMATTR InstName R2
SYMATTR Value 4.7k
SYMBOL res 720 -192 R0
SYMATTR InstName R3
SYMATTR Value 4.7k
SYMBOL res 720 144 R0
SYMATTR InstName R4
SYMATTR Value 2.2k
SYMBOL res 1008 -352 R90
WINDOW 0 0 56 VBottom 2
WINDOW 3 32 56 VTop 2
SYMATTR InstName R5
SYMATTR Value 100
SYMBOL res 1152 256 R180
WINDOW 0 36 76 Left 2
WINDOW 3 36 40 Left 2
SYMATTR InstName R6
SYMATTR Value 390
SYMBOL cap 1040 96 R90
WINDOW 0 0 32 VBottom 2
WINDOW 3 32 32 VTop 2
SYMATTR InstName C5
SYMATTR Value 4.7n
SYMBOL Contrib\\Toshiba\\bjt\\TMBT3904 672 16 R0
SYMATTR InstName U1
SYMBOL cap 1184 32 R0
SYMATTR InstName C6
SYMATTR Value 39p
SYMBOL cap 848 -272 R0
SYMATTR InstName C7
SYMATTR Value 4.7n
SYMBOL voltage 1024 -336 R270
WINDOW 0 32 56 VTop 2
WINDOW 3 -32 56 VBottom 2
WINDOW 123 0 0 Left 0
WINDOW 39 0 0 Left 0
SYMATTR InstName V1
SYMATTR Value 5
TEXT 256 552 Left 2 !.tran 0 0.002 0 startup
